Version 4.1
SHEET 1 1384 680
WIRE 160 48 160 32
WIRE 176 48 160 48
WIRE 176 96 176 48
WIRE 176 96 160 96
WIRE 112 192 112 128
WIRE 112 192 80 192
WIRE 160 192 160 144
WIRE 256 192 160 192
WIRE 160 208 160 192
WIRE 192 256 160 256
WIRE 112 288 112 192
WIRE 192 304 192 256
WIRE 192 304 160 304
WIRE 160 320 160 304
FLAG 368 144 0
FLAG 464 336 0
FLAG 160 320 0
FLAG 80 192 Vin
IOPIN 80 192 In
FLAG 368 64 Vin
IOPIN 368 64 In
FLAG 160 32 Vdd
IOPIN 160 32 In
FLAG 464 256 Vdd
IOPIN 464 256 In
FLAG 256 192 Vout
IOPIN 256 192 Out
SYMBOL pmos4 112 48 R0
SYMATTR InstName M1
SYMBOL nmos4 112 208 R0
SYMATTR InstName M2
SYMBOL voltage 368 48 R0
WINDOW 123 0 0 Left 0
WINDOW 39 0 0 Left 0
SYMATTR InstName V1
SYMATTR Value PULSE(0 5 0 1n 1n 5n 10n)
SYMBOL voltage 464 240 R0
WINDOW 123 0 0 Left 0
WINDOW 39 0 0 Left 0
SYMATTR InstName V2
SYMATTR Value 5
TEXT -8 360 Left 2 !.tran 100n
TEXT 832 -24 Left 2 !.measure avg_power AVG -V(Vdd)*I(V2)
TEXT 840 40 Left 2 !.measure tpHL TRIG V(Vin) VAL=2.5 RISE=1\n+ TARG V(Vout) VAL=2.5 FALL=1\n \n.measure tpLH TRIG V(Vin) VAL=2.5 FALL=1\n+ TARG V(Vout) VAL=2.5 RISE=1
TEXT 848 200 Left 2 !.measure trise TRIG V(Vout) VAL=0.5 RISE=1\n+ TARG V(Vout) VAL=4.5 RISE=1
TEXT 856 272 Left 2 !.measure tfall TRIG V(Vout) VAL=4.5 FALL=1\n+ TARG V(Vout) VAL=0.5 FALL=1
